network/Integrated/Lines.txt
!11 kV connectors

New Line.LINE1 Bus1=1 Bus2=2 phases=3 Linecode=11_1 Length=1 Units=km

!Feeder 1

New Line.LINE11 Bus1=11 Bus2=12 phases=3 Linecode=4c_70 Length=1.098 Units=m
New Line.LINE12 Bus1=12 Bus2=13 phases=3 Linecode=4c_70 Length=0.11511 Units=m
New Line.LINE13 Bus1=13 Bus2=14 phases=3 Linecode=4c_70 Length=0.10784 Units=m
New Line.LINE14 Bus1=14 Bus2=15 phases=3 Linecode=4c_70 Length=0.094021 Units=m
New Line.LINE15 Bus1=15 Bus2=16 phases=3 Linecode=4c_70 Length=0.14812 Units=m
New Line.LINE16 Bus1=16 Bus2=17 phases=3 Linecode=4c_70 Length=10.0863 Units=m
New Line.LINE17 Bus1=17 Bus2=18 phases=3 Linecode=4c_70 Length=0.45175 Units=m
New Line.LINE18 Bus1=18 Bus2=19 phases=3 Linecode=4c_70 Length=0.376 Units=m
New Line.LINE19 Bus1=19 Bus2=110 phases=3 Linecode=4c_70 Length=0.32997 Units=m
New Line.LINE110 Bus1=110 Bus2=111 phases=3 Linecode=4c_70 Length=0.24622 Units=m
New Line.LINE111 Bus1=111 Bus2=112 phases=3 Linecode=4c_70 Length=0.23114 Units=m
New Line.LINE112 Bus1=112 Bus2=113 phases=3 Linecode=4c_70 Length=0.14213 Units=m
New Line.LINE113 Bus1=113 Bus2=114 phases=3 Linecode=4c_70 Length=0.35384 Units=m
New Line.LINE114 Bus1=114 Bus2=115 phases=3 Linecode=4c_70 Length=2.8664 Units=m
New Line.LINE115 Bus1=115 Bus2=116 phases=3 Linecode=2c_.007 Length=0.09654 Units=m
New Line.LINE116 Bus1=115 Bus2=117 phases=3 Linecode=4c_70 Length=3.476 Units=m
New Line.LINE117 Bus1=116 Bus2=118 phases=3 Linecode=2c_.007 Length=0.044045 Units=m
New Line.LINE118 Bus1=117 Bus2=119 phases=3 Linecode=4c_70 Length=0.23917 Units=m
New Line.LINE119 Bus1=118 Bus2=120 phases=3 Linecode=2c_.007 Length=0.046174 Units=m
New Line.LINE120 Bus1=119 Bus2=121 phases=3 Linecode=4c_70 Length=0.26856 Units=m
New Line.LINE121 Bus1=120 Bus2=122 phases=3 Linecode=2c_.007 Length=0.041976 Units=m
New Line.LINE122 Bus1=121 Bus2=123 phases=3 Linecode=4c_70 Length=0.43727 Units=m
New Line.LINE123 Bus1=122 Bus2=124 phases=3 Linecode=2c_.007 Length=0.051245 Units=m
New Line.LINE124 Bus1=123 Bus2=125 phases=3 Linecode=4c_70 Length=0.7955 Units=m
New Line.LINE125 Bus1=124 Bus2=126 phases=3 Linecode=2c_.007 Length=0.055902 Units=m
New Line.LINE126 Bus1=125 Bus2=127 phases=3 Linecode=2c_16 Length=5.9049 Units=m
New Line.LINE127 Bus1=125 Bus2=128 phases=3 Linecode=4c_70 Length=9.9686 Units=m
New Line.LINE128 Bus1=126 Bus2=129 phases=3 Linecode=2c_.007 Length=0.054562 Units=m
New Line.LINE129 Bus1=127 Bus2=130 phases=3 Linecode=2c_16 Length=1.6265 Units=m
New Line.LINE130 Bus1=127 Bus2=131 phases=3 Linecode=2c_16 Length=1.5847 Units=m
New Line.LINE131 Bus1=128 Bus2=132 phases=3 Linecode=4c_70 Length=2.6538 Units=m
New Line.LINE132 Bus1=129 Bus2=133 phases=3 Linecode=2c_.007 Length=0.14629 Units=m
New Line.LINE133 Bus1=130 Bus2=134 phases=3 Linecode=2c_16 Length=3.7248 Units=m
New Line.LINE134 Bus1=131 Bus2=135 phases=3 Linecode=2c_16 Length=0.053666 Units=m
New Line.LINE135 Bus1=132 Bus2=136 phases=3 Linecode=2c_16 Length=5.7265 Units=m
New Line.LINE136 Bus1=132 Bus2=137 phases=3 Linecode=4c_70 Length=8.0244 Units=m
New Line.LINE137 Bus1=133 Bus2=138 phases=3 Linecode=2c_.007 Length=0.13648 Units=m
New Line.LINE138 Bus1=135 Bus2=139 phases=3 Linecode=2c_16 Length=0.077162 Units=m
New Line.LINE139 Bus1=136 Bus2=140 phases=3 Linecode=2c_16 Length=0.40004 Units=m
New Line.LINE140 Bus1=136 Bus2=141 phases=3 Linecode=2c_16 Length=1.8063 Units=m
New Line.LINE141 Bus1=137 Bus2=142 phases=3 Linecode=4c_70 Length=5.5684 Units=m
New Line.LINE142 Bus1=137 Bus2=143 phases=3 Linecode=4c_185 Length=0.21675 Units=m
New Line.LINE143 Bus1=138 Bus2=144 phases=3 Linecode=2c_.007 Length=0.033838 Units=m
New Line.LINE144 Bus1=139 Bus2=145 phases=3 Linecode=2c_16 Length=0.098955 Units=m
New Line.LINE145 Bus1=140 Bus2=146 phases=3 Linecode=2c_16 Length=0.18031 Units=m
New Line.LINE146 Bus1=141 Bus2=147 phases=3 Linecode=2c_16 Length=4.3463 Units=m
New Line.LINE147 Bus1=142 Bus2=148 phases=3 Linecode=4c_70 Length=4.2078 Units=m
New Line.LINE148 Bus1=143 Bus2=149 phases=3 Linecode=4c_185 Length=0.10436 Units=m
New Line.LINE149 Bus1=144 Bus2=150 phases=3 Linecode=2c_.007 Length=0.048104 Units=m
New Line.LINE150 Bus1=145 Bus2=151 phases=3 Linecode=2c_16 Length=0.241 Units=m
New Line.LINE151 Bus1=146 Bus2=152 phases=3 Linecode=2c_16 Length=0.19109 Units=m
New Line.LINE152 Bus1=148 Bus2=153 phases=3 Linecode=4c_70 Length=0.60668 Units=m
New Line.LINE153 Bus1=148 Bus2=154 phases=3 Linecode=4c_70 Length=0.63949 Units=m
New Line.LINE154 Bus1=149 Bus2=155 phases=3 Linecode=4c_185 Length=0.11625 Units=m
New Line.LINE155 Bus1=150 Bus2=156 phases=3 Linecode=2c_.007 Length=0.087664 Units=m
New Line.LINE156 Bus1=151 Bus2=157 phases=3 Linecode=2c_16 Length=0.20634 Units=m
New Line.LINE157 Bus1=152 Bus2=158 phases=3 Linecode=2c_16 Length=0.182 Units=m
New Line.LINE158 Bus1=153 Bus2=159 phases=3 Linecode=4c_70 Length=2.7481 Units=m
New Line.LINE159 Bus1=154 Bus2=160 phases=3 Linecode=4c_70 Length=0.065368 Units=m
New Line.LINE160 Bus1=155 Bus2=161 phases=3 Linecode=4c_185 Length=0.10028 Units=m
New Line.LINE161 Bus1=156 Bus2=162 phases=3 Linecode=2c_.007 Length=0.078 Units=m
New Line.LINE162 Bus1=157 Bus2=163 phases=3 Linecode=2c_16 Length=0.98912 Units=m
New Line.LINE163 Bus1=158 Bus2=164 phases=3 Linecode=2c_16 Length=0.109 Units=m
New Line.LINE164 Bus1=159 Bus2=165 phases=3 Linecode=4c_70 Length=0.55868 Units=m
New Line.LINE165 Bus1=159 Bus2=166 phases=3 Linecode=2c_16 Length=8.2583 Units=m
New Line.LINE166 Bus1=160 Bus2=167 phases=3 Linecode=4c_70 Length=0.074 Units=m
New Line.LINE167 Bus1=161 Bus2=168 phases=3 Linecode=4c_185 Length=0.096042 Units=m
New Line.LINE168 Bus1=162 Bus2=169 phases=3 Linecode=2c_.007 Length=0.083241 Units=m
New Line.LINE169 Bus1=163 Bus2=170 phases=3 Linecode=2c_16 Length=3.4962 Units=m
New Line.LINE170 Bus1=164 Bus2=171 phases=3 Linecode=2c_16 Length=0.21385 Units=m
New Line.LINE171 Bus1=165 Bus2=172 phases=3 Linecode=4c_70 Length=6.6006 Units=m
New Line.LINE172 Bus1=166 Bus2=173 phases=3 Linecode=2c_16 Length=4.0366 Units=m
New Line.LINE173 Bus1=166 Bus2=174 phases=3 Linecode=2c_16 Length=4.0366 Units=m
New Line.LINE174 Bus1=167 Bus2=175 phases=3 Linecode=4c_70 Length=0.17951 Units=m
New Line.LINE175 Bus1=168 Bus2=176 phases=3 Linecode=4c_185 Length=0.23551 Units=m
New Line.LINE176 Bus1=169 Bus2=177 phases=3 Linecode=2c_.007 Length=0.38907 Units=m
New Line.LINE177 Bus1=171 Bus2=178 phases=3 Linecode=2c_16 Length=1.0838 Units=m
New Line.LINE178 Bus1=172 Bus2=179 phases=3 Linecode=4c_70 Length=2.3008 Units=m
New Line.LINE179 Bus1=175 Bus2=180 phases=3 Linecode=4c_70 Length=0.10362 Units=m
New Line.LINE180 Bus1=176 Bus2=181 phases=3 Linecode=4c_185 Length=0.7469 Units=m
New Line.LINE181 Bus1=177 Bus2=182 phases=3 Linecode=2c_.007 Length=0.51088 Units=m
New Line.LINE182 Bus1=178 Bus2=183 phases=3 Linecode=2c_16 Length=4.084 Units=m
New Line.LINE183 Bus1=179 Bus2=184 phases=3 Linecode=4c_70 Length=0.50211 Units=m
New Line.LINE184 Bus1=180 Bus2=185 phases=3 Linecode=4c_70 Length=0.11122 Units=m
New Line.LINE185 Bus1=181 Bus2=186 phases=3 Linecode=4c_185 Length=1.4388 Units=m
New Line.LINE186 Bus1=182 Bus2=187 phases=3 Linecode=2c_.007 Length=0.31045 Units=m
New Line.LINE187 Bus1=184 Bus2=188 phases=3 Linecode=4c_70 Length=1.0182 Units=m
New Line.LINE188 Bus1=185 Bus2=189 phases=3 Linecode=4c_70 Length=0.1048 Units=m
New Line.LINE189 Bus1=186 Bus2=190 phases=3 Linecode=4c_185 Length=0.34251 Units=m
New Line.LINE190 Bus1=187 Bus2=191 phases=3 Linecode=2c_.007 Length=0.11206 Units=m
New Line.LINE191 Bus1=188 Bus2=192 phases=3 Linecode=4c_70 Length=0.96021 Units=m
New Line.LINE192 Bus1=190 Bus2=193 phases=3 Linecode=4c_185 Length=0.065307 Units=m
New Line.LINE193 Bus1=191 Bus2=194 phases=3 Linecode=2c_.007 Length=0.034785 Units=m
New Line.LINE194 Bus1=192 Bus2=195 phases=3 Linecode=4c_70 Length=0.55811 Units=m
New Line.LINE195 Bus1=193 Bus2=196 phases=3 Linecode=4c_185 Length=0.086052 Units=m
New Line.LINE196 Bus1=194 Bus2=197 phases=3 Linecode=2c_.007 Length=0.03677 Units=m
New Line.LINE197 Bus1=195 Bus2=198 phases=3 Linecode=4c_70 Length=0.36859 Units=m
New Line.LINE198 Bus1=196 Bus2=199 phases=3 Linecode=4c_185 Length=0.037216 Units=m
New Line.LINE199 Bus1=197 Bus2=1100 phases=3 Linecode=2c_.007 Length=0.089588 Units=m
New Line.LINE1100 Bus1=198 Bus2=1101 phases=3 Linecode=4c_70 Length=0.50892 Units=m
New Line.LINE1101 Bus1=199 Bus2=1102 phases=3 Linecode=4c_185 Length=5.0819 Units=m
New Line.LINE1102 Bus1=1100 Bus2=1103 phases=3 Linecode=2c_.007 Length=0.28583 Units=m
New Line.LINE1103 Bus1=1101 Bus2=1104 phases=3 Linecode=4c_.35 Length=0.28838 Units=m
New Line.LINE1104 Bus1=1101 Bus2=1105 phases=3 Linecode=4c_70 Length=0.33602 Units=m
New Line.LINE1105 Bus1=1102 Bus2=1106 phases=3 Linecode=4c_185 Length=0.22108 Units=m
New Line.LINE1106 Bus1=1104 Bus2=1107 phases=3 Linecode=4c_.35 Length=0.3489 Units=m
New Line.LINE1107 Bus1=1105 Bus2=1108 phases=3 Linecode=4c_70 Length=0.19054 Units=m
New Line.LINE1108 Bus1=1106 Bus2=1109 phases=3 Linecode=4c_185 Length=0.45085 Units=m
New Line.LINE1109 Bus1=1107 Bus2=1110 phases=3 Linecode=4c_.35 Length=0.4044 Units=m
New Line.LINE1110 Bus1=1108 Bus2=1111 phases=3 Linecode=4c_70 Length=7.5182 Units=m
New Line.LINE1111 Bus1=1109 Bus2=1112 phases=3 Linecode=4c_185 Length=11.9766 Units=m
New Line.LINE1112 Bus1=1110 Bus2=1113 phases=3 Linecode=4c_.35 Length=0.61659 Units=m
New Line.LINE1113 Bus1=1111 Bus2=1114 phases=3 Linecode=4c_70 Length=0.75316 Units=m
New Line.LINE1114 Bus1=1112 Bus2=1115 phases=3 Linecode=4c_185 Length=10.6613 Units=m
New Line.LINE1115 Bus1=1113 Bus2=1116 phases=3 Linecode=4c_.35 Length=0.79271 Units=m
New Line.LINE1116 Bus1=1114 Bus2=1117 phases=3 Linecode=4c_.35 Length=1.1056 Units=m
New Line.LINE1117 Bus1=1114 Bus2=1118 phases=3 Linecode=4c_.1 Length=3.6556 Units=m
New Line.LINE1118 Bus1=1115 Bus2=1119 phases=3 Linecode=4c_185 Length=0.99464 Units=m
New Line.LINE1119 Bus1=1116 Bus2=1120 phases=3 Linecode=4c_.35 Length=0.56909 Units=m
New Line.LINE1120 Bus1=1117 Bus2=1121 phases=3 Linecode=2c_.007 Length=0.19481 Units=m
New Line.LINE1121 Bus1=1117 Bus2=1122 phases=3 Linecode=4c_.35 Length=0.53831 Units=m
New Line.LINE1122 Bus1=1118 Bus2=1123 phases=3 Linecode=4c_.1 Length=6.5924 Units=m
New Line.LINE1123 Bus1=1119 Bus2=1124 phases=3 Linecode=4c_185 Length=0.7248 Units=m
New Line.LINE1124 Bus1=1120 Bus2=1125 phases=3 Linecode=4c_.35 Length=0.80412 Units=m
New Line.LINE1125 Bus1=1121 Bus2=1126 phases=3 Linecode=2c_.007 Length=0.16869 Units=m
New Line.LINE1126 Bus1=1122 Bus2=1127 phases=3 Linecode=4c_.35 Length=2.5288 Units=m
New Line.LINE1127 Bus1=1123 Bus2=1128 phases=3 Linecode=4c_.1 Length=2.9646 Units=m
New Line.LINE1128 Bus1=1124 Bus2=1129 phases=3 Linecode=4c_185 Length=0.62512 Units=m
New Line.LINE1129 Bus1=1125 Bus2=1130 phases=3 Linecode=4c_.35 Length=0.87 Units=m
New Line.LINE1130 Bus1=1126 Bus2=1131 phases=3 Linecode=2c_.007 Length=0.11915 Units=m
New Line.LINE1131 Bus1=1127 Bus2=1132 phases=3 Linecode=2c_16 Length=3.8212 Units=m
New Line.LINE1132 Bus1=1127 Bus2=1133 phases=3 Linecode=4c_.35 Length=7.1782 Units=m
New Line.LINE1133 Bus1=1128 Bus2=1134 phases=3 Linecode=4c_.1 Length=0.88205 Units=m
New Line.LINE1134 Bus1=1129 Bus2=1135 phases=3 Linecode=4c_185 Length=1.9203 Units=m
New Line.LINE1135 Bus1=1130 Bus2=1136 phases=3 Linecode=4c_.35 Length=0.82048 Units=m
New Line.LINE1136 Bus1=1131 Bus2=1137 phases=3 Linecode=2c_.007 Length=0.18436 Units=m
New Line.LINE1137 Bus1=1132 Bus2=1138 phases=3 Linecode=2c_16 Length=0.32908 Units=m
New Line.LINE1138 Bus1=1133 Bus2=1139 phases=3 Linecode=4c_.35 Length=5.3402 Units=m
New Line.LINE1139 Bus1=1134 Bus2=1140 phases=3 Linecode=4c_.1 Length=0.99566 Units=m
New Line.LINE1140 Bus1=1135 Bus2=1141 phases=3 Linecode=4c_185 Length=1.4127 Units=m
New Line.LINE1141 Bus1=1136 Bus2=1142 phases=3 Linecode=4c_.35 Length=1.349 Units=m
New Line.LINE1142 Bus1=1137 Bus2=1143 phases=3 Linecode=2c_.007 Length=0.21781 Units=m
New Line.LINE1143 Bus1=1138 Bus2=1144 phases=3 Linecode=2c_16 Length=0.32289 Units=m
New Line.LINE1144 Bus1=1139 Bus2=1145 phases=3 Linecode=4c_.35 Length=3.5762 Units=m
New Line.LINE1145 Bus1=1140 Bus2=1146 phases=3 Linecode=4c_.1 Length=0.9364 Units=m
New Line.LINE1146 Bus1=1141 Bus2=1147 phases=3 Linecode=4c_185 Length=0.24053 Units=m
New Line.LINE1147 Bus1=1142 Bus2=1148 phases=3 Linecode=4c_.35 Length=6.4142 Units=m
New Line.LINE1148 Bus1=1143 Bus2=1149 phases=3 Linecode=2c_.007 Length=0.19401 Units=m
New Line.LINE1149 Bus1=1144 Bus2=1150 phases=3 Linecode=2c_16 Length=0.26072 Units=m
New Line.LINE1150 Bus1=1145 Bus2=1151 phases=3 Linecode=4c_.35 Length=3.5713 Units=m
New Line.LINE1151 Bus1=1145 Bus2=1152 phases=3 Linecode=2c_16 Length=5.1314 Units=m
New Line.LINE1152 Bus1=1146 Bus2=1153 phases=3 Linecode=4c_.1 Length=1.0926 Units=m
New Line.LINE1153 Bus1=1147 Bus2=1154 phases=3 Linecode=4c_185 Length=0.083096 Units=m
New Line.LINE1154 Bus1=1148 Bus2=1155 phases=3 Linecode=4c_.35 Length=1.3973 Units=m
New Line.LINE1155 Bus1=1149 Bus2=1156 phases=3 Linecode=2c_.007 Length=0.2191 Units=m
New Line.LINE1156 Bus1=1150 Bus2=1157 phases=3 Linecode=2c_16 Length=0.39132 Units=m
New Line.LINE1157 Bus1=1151 Bus2=1158 phases=3 Linecode=4c_.35 Length=9.4713 Units=m
New Line.LINE1158 Bus1=1152 Bus2=1159 phases=3 Linecode=2c_16 Length=0.31233 Units=m
New Line.LINE1159 Bus1=1153 Bus2=1160 phases=3 Linecode=4c_.1 Length=0.31439 Units=m
New Line.LINE1160 Bus1=1154 Bus2=1161 phases=3 Linecode=4c_185 Length=0.12256 Units=m
New Line.LINE1161 Bus1=1155 Bus2=1162 phases=3 Linecode=2c_16 Length=11.7422 Units=m
New Line.LINE1162 Bus1=1155 Bus2=1163 phases=3 Linecode=4c_.35 Length=5.2844 Units=m
New Line.LINE1163 Bus1=1156 Bus2=1164 phases=3 Linecode=2c_.007 Length=0.20342 Units=m
New Line.LINE1164 Bus1=1157 Bus2=1165 phases=3 Linecode=2c_16 Length=0.47178 Units=m
New Line.LINE1165 Bus1=1158 Bus2=1166 phases=3 Linecode=4c_.35 Length=3.2899 Units=m
New Line.LINE1166 Bus1=1159 Bus2=1167 phases=3 Linecode=2c_16 Length=0.28533 Units=m
New Line.LINE1167 Bus1=1160 Bus2=1168 phases=3 Linecode=4c_.1 Length=1.7861 Units=m
New Line.LINE1168 Bus1=1161 Bus2=1169 phases=3 Linecode=4c_185 Length=0.24958 Units=m
New Line.LINE1169 Bus1=1162 Bus2=1170 phases=3 Linecode=2c_16 Length=2.2183 Units=m
New Line.LINE1170 Bus1=1163 Bus2=1171 phases=3 Linecode=4c_.35 Length=7.0156 Units=m
New Line.LINE1171 Bus1=1164 Bus2=1172 phases=3 Linecode=2c_.007 Length=0.1727 Units=m
New Line.LINE1172 Bus1=1165 Bus2=1173 phases=3 Linecode=2c_16 Length=0.35642 Units=m
New Line.LINE1173 Bus1=1166 Bus2=1174 phases=3 Linecode=4c_.35 Length=3.9183 Units=m
New Line.LINE1174 Bus1=1166 Bus2=1175 phases=3 Linecode=2c_16 Length=4.2045 Units=m
New Line.LINE1175 Bus1=1167 Bus2=1176 phases=3 Linecode=2c_16 Length=0.11853 Units=m
New Line.LINE1176 Bus1=1168 Bus2=1177 phases=3 Linecode=4c_.1 Length=1.0088 Units=m
New Line.LINE1177 Bus1=1170 Bus2=1178 phases=3 Linecode=2c_16 Length=4.5768 Units=m
New Line.LINE1178 Bus1=1171 Bus2=1179 phases=3 Linecode=4c_.35 Length=1.1818 Units=m
New Line.LINE1179 Bus1=1171 Bus2=1180 phases=3 Linecode=2c_16 Length=2.4224 Units=m
New Line.LINE1180 Bus1=1172 Bus2=1181 phases=3 Linecode=2c_.007 Length=0.17961 Units=m
New Line.LINE1181 Bus1=1173 Bus2=1182 phases=3 Linecode=2c_16 Length=0.41244 Units=m
New Line.LINE1182 Bus1=1174 Bus2=1183 phases=3 Linecode=4c_.35 Length=0.58763 Units=m
New Line.LINE1183 Bus1=1175 Bus2=1184 phases=3 Linecode=2c_16 Length=0.45409 Units=m
New Line.LINE1184 Bus1=1176 Bus2=1185 phases=3 Linecode=2c_16 Length=0.25549 Units=m
New Line.LINE1185 Bus1=1177 Bus2=1186 phases=3 Linecode=4c_.1 Length=0.74886 Units=m
New Line.LINE1186 Bus1=1179 Bus2=1187 phases=3 Linecode=4c_.35 Length=4.6507 Units=m
New Line.LINE1187 Bus1=1180 Bus2=1188 phases=3 Linecode=2c_16 Length=10.0258 Units=m
New Line.LINE1188 Bus1=1181 Bus2=1189 phases=3 Linecode=2c_.007 Length=0.15412 Units=m
New Line.LINE1189 Bus1=1182 Bus2=1190 phases=3 Linecode=2c_16 Length=0.3878 Units=m
New Line.LINE1190 Bus1=1183 Bus2=1191 phases=3 Linecode=4c_.35 Length=2.3151 Units=m
New Line.LINE1191 Bus1=1183 Bus2=1192 phases=3 Linecode=4c_.35 Length=0.27791 Units=m
New Line.LINE1192 Bus1=1184 Bus2=1193 phases=3 Linecode=2c_16 Length=0.43923 Units=m
New Line.LINE1193 Bus1=1185 Bus2=1194 phases=3 Linecode=2c_16 Length=0.65073 Units=m
New Line.LINE1194 Bus1=1186 Bus2=1195 phases=3 Linecode=4c_.1 Length=0.67326 Units=m
New Line.LINE1195 Bus1=1187 Bus2=1196 phases=3 Linecode=4c_.35 Length=8.3036 Units=m
New Line.LINE1196 Bus1=1188 Bus2=1197 phases=3 Linecode=2c_16 Length=1.9595 Units=m
New Line.LINE1197 Bus1=1188 Bus2=1198 phases=3 Linecode=2c_16 Length=1.1325 Units=m
New Line.LINE1198 Bus1=1189 Bus2=1199 phases=3 Linecode=2c_.007 Length=0.19148 Units=m
New Line.LINE1199 Bus1=1190 Bus2=1200 phases=3 Linecode=2c_16 Length=0.41725 Units=m
New Line.LINE1200 Bus1=1191 Bus2=1201 phases=3 Linecode=4c_.35 Length=0.9314 Units=m
...

!Feeder 2
New Line.LINE21 Bus1=21 Bus2=22 phases=3 Linecode=4c_70 Length=1.2678 Units=m
New Line.LINE22 Bus1=22 Bus2=23 phases=3 Linecode=4c_70 Length=0.14701 Units=m
New Line.LINE23 Bus1=23 Bus2=24 phases=3 Linecode=4c_70 Length=0.11539 Units=m
New Line.LINE24 Bus1=24 Bus2=25 phases=3 Linecode=4c_70 Length=0.091935 Units=m
New Line.LINE25 Bus1=25 Bus2=26 phases=3 Linecode=4c_70 Length=0.10826 Units=m
New Line.LINE26 Bus1=26 Bus2=27 phases=3 Linecode=4c_70 Length=10.9021 Units=m
New Line.LINE27 Bus1=27 Bus2=28 phases=3 Linecode=4c_70 Length=0.40028 Units=m
New Line.LINE28 Bus1=28 Bus2=29 phases=3 Linecode=4c_70 Length=0.298 Units=m
New Line.LINE29 Bus1=29 Bus2=210 phases=3 Linecode=4c_70 Length=0.37317 Units=m
New Line.LINE210 Bus1=210 Bus2=211 phases=3 Linecode=4c_70 Length=0.39461 Units=m
New Line.LINE211 Bus1=211 Bus2=212 phases=3 Linecode=4c_70 Length=0.35891 Units=m
New Line.LINE212 Bus1=212 Bus2=213 phases=3 Linecode=4c_70 Length=0.43804 Units=m
New Line.LINE213 Bus1=213 Bus2=214 phases=3 Linecode=4c_70 Length=7.3529 Units=m
New Line.LINE214 Bus1=214 Bus2=215 phases=3 Linecode=4c_70 Length=11.2962 Units=m
New Line.LINE215 Bus1=215 Bus2=216 phases=3 Linecode=4c_70 Length=3.6224 Units=m
New Line.LINE216 Bus1=216 Bus2=217 phases=3 Linecode=4c_70 Length=0.31933 Units=m
New Line.LINE217 Bus1=216 Bus2=218 phases=3 Linecode=4c_70 Length=3.9213 Units=m
New Line.LINE218 Bus1=217 Bus2=219 phases=3 Linecode=4c_70 Length=0.09014 Units=m
New Line.LINE219 Bus1=218 Bus2=220 phases=3 Linecode=4c_70 Length=6.5359 Units=m
New Line.LINE220 Bus1=219 Bus2=221 phases=3 Linecode=4c_70 Length=0.095854 Units=m
New Line.LINE221 Bus1=220 Bus2=222 phases=3 Linecode=4c_70 Length=0.10668 Units=m
New Line.LINE222 Bus1=221 Bus2=223 phases=3 Linecode=4c_70 Length=0.076118 Units=m
New Line.LINE223 Bus1=222 Bus2=224 phases=3 Linecode=4c_70 Length=0.201 Units=m
New Line.LINE224 Bus1=223 Bus2=225 phases=3 Linecode=4c_70 Length=0.138 Units=m
New Line.LINE225 Bus1=224 Bus2=226 phases=3 Linecode=4c_70 Length=0.15048 Units=m
New Line.LINE226 Bus1=225 Bus2=227 phases=3 Linecode=4c_70 Length=0.29149 Units=m
New Line.LINE227 Bus1=226 Bus2=228 phases=3 Linecode=4c_70 Length=0.18296 Units=m
New Line.LINE228 Bus1=227 Bus2=229 phases=3 Linecode=4c_70 Length=5.9092 Units=m
New Line.LINE229 Bus1=228 Bus2=230 phases=3 Linecode=4c_70 Length=0.22495 Units=m
New Line.LINE230 Bus1=229 Bus2=231 phases=3 Linecode=4c_70 Length=0.615 Units=m
New Line.LINE231 Bus1=230 Bus2=232 phases=3 Linecode=4c_70 Length=0.18524 Units=m
New Line.LINE232 Bus1=232 Bus2=233 phases=3 Linecode=4c_70 Length=0.30245 Units=m
New Line.LINE233 Bus1=233 Bus2=234 phases=3 Linecode=4c_70 Length=0.27631 Units=m
New Line.LINE234 Bus1=234 Bus2=235 phases=3 Linecode=4c_70 Length=0.29119 Units=m
New Line.LINE235 Bus1=235 Bus2=236 phases=3 Linecode=4c_70 Length=0.068154 Units=m
New Line.LINE236 Bus1=236 Bus2=237 phases=3 Linecode=4c_70 Length=0.16313 Units=m
New Line.LINE237 Bus1=237 Bus2=238 phases=3 Linecode=4c_70 Length=0.39768 Units=m
New Line.LINE238 Bus1=238 Bus2=239 phases=3 Linecode=4c_70 Length=7.942 Units=m
New Line.LINE239 Bus1=239 Bus2=240 phases=3 Linecode=4c_70 Length=1.8421 Units=m
New Line.LINE240 Bus1=240 Bus2=241 phases=3 Linecode=4c_70 Length=0.52269 Units=m
New Line.LINE241 Bus1=240 Bus2=242 phases=3 Linecode=4c_70 Length=2.3487 Units=m
New Line.LINE242 Bus1=242 Bus2=243 phases=3 Linecode=4c_70 Length=0.45549 Units=m
New Line.LINE243 Bus1=243 Bus2=244 phases=3 Linecode=4c_70 Length=0.38293 Units=m
New Line.LINE244 Bus1=244 Bus2=245 phases=3 Linecode=4c_70 Length=0.42216 Units=m
New Line.LINE245 Bus1=245 Bus2=246 phases=3 Linecode=4c_70 Length=0.48601 Units=m
New Line.LINE246 Bus1=246 Bus2=247 phases=3 Linecode=4c_70 Length=0.7176 Units=m
New Line.LINE247 Bus1=247 Bus2=248 phases=3 Linecode=4c_70 Length=0.54623 Units=m
New Line.LINE248 Bus1=248 Bus2=249 phases=3 Linecode=4c_70 Length=0.47164 Units=m
New Line.LINE249 Bus1=249 Bus2=250 phases=3 Linecode=4c_70 Length=0.30936 Units=m
New Line.LINE250 Bus1=250 Bus2=251 phases=3 Linecode=4c_70 Length=0.3128 Units=m
New Line.LINE251 Bus1=251 Bus2=252 phases=3 Linecode=4c_70 Length=0.35569 Units=m
New Line.LINE252 Bus1=252 Bus2=253 phases=3 Linecode=4c_70 Length=0.65323 Units=m
New Line.LINE253 Bus1=253 Bus2=254 phases=3 Linecode=4c_70 Length=5.6025 Units=m
New Line.LINE254 Bus1=254 Bus2=255 phases=3 Linecode=4c_70 Length=0.16388 Units=m
New Line.LINE255 Bus1=255 Bus2=256 phases=3 Linecode=4c_70 Length=0.22588 Units=m
New Line.LINE256 Bus1=256 Bus2=257 phases=3 Linecode=4c_70 Length=0.23492 Units=m
New Line.LINE257 Bus1=257 Bus2=258 phases=3 Linecode=4c_70 Length=0.19624 Units=m
New Line.LINE258 Bus1=258 Bus2=259 phases=3 Linecode=4c_70 Length=0.28481 Units=m
New Line.LINE259 Bus1=259 Bus2=260 phases=3 Linecode=4c_70 Length=0.30895 Units=m
New Line.LINE260 Bus1=260 Bus2=261 phases=3 Linecode=4c_70 Length=0.34812 Units=m
New Line.LINE261 Bus1=261 Bus2=262 phases=3 Linecode=4c_70 Length=0.3491 Units=m
New Line.LINE262 Bus1=262 Bus2=263 phases=3 Linecode=4c_70 Length=0.24452 Units=m
New Line.LINE263 Bus1=263 Bus2=264 phases=3 Linecode=4c_70 Length=0.326 Units=m
New Line.LINE264 Bus1=264 Bus2=265 phases=3 Linecode=4c_70 Length=0.601 Units=m
New Line.LINE265 Bus1=265 Bus2=266 phases=3 Linecode=4c_300_SAC Length=0.47332 Units=m
New Line.LINE266 Bus1=265 Bus2=267 phases=3 Linecode=4c_.1 Length=4.28 Units=m
New Line.LINE267 Bus1=266 Bus2=268 phases=3 Linecode=4c_300_SAC Length=0.72048 Units=m
New Line.LINE268 Bus1=267 Bus2=269 phases=3 Linecode=4c_.1 Length=0.642 Units=m
New Line.LINE269 Bus1=267 Bus2=270 phases=3 Linecode=4c_.1 Length=5.9972 Units=m
New Line.LINE270 Bus1=268 Bus2=271 phases=3 Linecode=4c_300_SAC Length=1.0686 Units=m
New Line.LINE271 Bus1=270 Bus2=272 phases=3 Linecode=4c_.1 Length=0.68171 Units=m
New Line.LINE272 Bus1=270 Bus2=273 phases=3 Linecode=4c_.1 Length=2.604 Units=m
New Line.LINE273 Bus1=271 Bus2=274 phases=3 Linecode=4c_300_SAC Length=0.85425 Units=m
New Line.LINE274 Bus1=273 Bus2=275 phases=3 Linecode=4c_.1 Length=0.64295 Units=m
New Line.LINE275 Bus1=273 Bus2=276 phases=3 Linecode=4c_.1 Length=6.4225 Units=m
New Line.LINE276 Bus1=274 Bus2=277 phases=3 Linecode=4c_300_SAC Length=0.79964 Units=m
New Line.LINE277 Bus1=276 Bus2=278 phases=3 Linecode=4c_.1 Length=0.61537 Units=m
New Line.LINE278 Bus1=276 Bus2=279 phases=3 Linecode=4c_.1 Length=0.71391 Units=m
New Line.LINE279 Bus1=277 Bus2=280 phases=3 Linecode=4c_300_SAC Length=0.56945 Units=m
New Line.LINE280 Bus1=279 Bus2=281 phases=3 Linecode=4c_.1 Length=0.57213 Units=m
New Line.LINE281 Bus1=279 Bus2=282 phases=3 Linecode=4c_.1 Length=4.0611 Units=m
New Line.LINE282 Bus1=280 Bus2=283 phases=3 Linecode=4c_300_SAC Length=0.4081 Units=m
New Line.LINE283 Bus1=282 Bus2=284 phases=3 Linecode=4c_.1 Length=0.40328 Units=m
New Line.LINE284 Bus1=283 Bus2=285 phases=3 Linecode=4c_300_SAC Length=0.391 Units=m
New Line.LINE285 Bus1=284 Bus2=286 phases=3 Linecode=4c_.1 Length=1.0115 Units=m
New Line.LINE286 Bus1=285 Bus2=287 phases=3 Linecode=4c_300_SAC Length=0.36271 Units=m
New Line.LINE287 Bus1=286 Bus2=288 phases=3 Linecode=4c_.1 Length=0.575 Units=m
New Line.LINE288 Bus1=286 Bus2=289 phases=3 Linecode=4c_.1 Length=4.9754 Units=m
New Line.LINE289 Bus1=287 Bus2=290 phases=3 Linecode=4c_300_SAC Length=0.9651 Units=m
New Line.LINE290 Bus1=289 Bus2=291 phases=3 Linecode=4c_.1 Length=0.60701 Units=m
New Line.LINE291 Bus1=289 Bus2=292 phases=3 Linecode=4c_.1 Length=4.2035 Units=m
New Line.LINE292 Bus1=290 Bus2=293 phases=3 Linecode=4c_300_SAC Length=0.24449 Units=m
New Line.LINE293 Bus1=290 Bus2=294 phases=3 Linecode=4c_300_SAC Length=1.0592 Units=m
New Line.LINE294 Bus1=292 Bus2=295 phases=3 Linecode=4c_.1 Length=0.56542 Units=m
New Line.LINE295 Bus1=292 Bus2=296 phases=3 Linecode=4c_.1 Length=5.4418 Units=m
New Line.LINE296 Bus1=293 Bus2=297 phases=3 Linecode=4c_300_SAC Length=0.22561 Units=m
New Line.LINE297 Bus1=294 Bus2=298 phases=3 Linecode=4c_300_SAC Length=5.4917 Units=m
New Line.LINE298 Bus1=296 Bus2=299 phases=3 Linecode=4c_.1 Length=0.534 Units=m
New Line.LINE299 Bus1=296 Bus2=2100 phases=3 Linecode=4c_.1 Length=2.4912 Units=m
New Line.LINE2100 Bus1=297 Bus2=2101 phases=3 Linecode=4c_300_SAC Length=0.138 Units=m
New Line.LINE2101 Bus1=298 Bus2=2102 phases=3 Linecode=4c_300_SAC Length=0.97602 Units=m
New Line.LINE2102 Bus1=298 Bus2=2103 phases=3 Linecode=4c_300_SAC Length=3.9741 Units=m
New Line.LINE2103 Bus1=2100 Bus2=2104 phases=3 Linecode=4c_.1 Length=3.9957 Units=m
New Line.LINE2104 Bus1=2100 Bus2=2105 phases=3 Linecode=4c_.06 Length=0.12802 Units=m
New Line.LINE2105 Bus1=2101 Bus2=2106 phases=3 Linecode=4c_300_SAC Length=0.16744 Units=m
New Line.LINE2106 Bus1=2102 Bus2=2107 phases=3 Linecode=4c_300_SAC Length=0.22539 Units=m
New Line.LINE2107 Bus1=2103 Bus2=2108 phases=3 Linecode=35_SAC_XC Length=1.4417 Units=m
New Line.LINE2108 Bus1=2103 Bus2=2109 phases=3 Linecode=4c_300_SAC Length=6.2021 Units=m
New Line.LINE2109 Bus1=2104 Bus2=2110 phases=3 Linecode=4c_.1 Length=6.2731 Units=m
New Line.LINE2110 Bus1=2105 Bus2=2111 phases=3 Linecode=4c_.06 Length=0.14339 Units=m
New Line.LINE2111 Bus1=2106 Bus2=2112 phases=3 Linecode=4c_300_SAC Length=0.115 Units=m
New Line.LINE2112 Bus1=2107 Bus2=2113 phases=3 Linecode=4c_300_SAC Length=0.20822 Units=m
New Line.LINE2113 Bus1=2108 Bus2=2114 phases=3 Linecode=35_SAC_XC Length=0.11424 Units=m
New Line.LINE2114 Bus1=2109 Bus2=2115 phases=3 Linecode=25_SAC_XC Length=18.6333 Units=m
New Line.LINE2115 Bus1=2109 Bus2=2116 phases=3 Linecode=4c_300_SAC Length=3.71 Units=m
New Line.LINE2116 Bus1=2110 Bus2=2117 phases=3 Linecode=4c_.1 Length=6.8138 Units=m
New Line.LINE2117 Bus1=2111 Bus2=2118 phases=3 Linecode=4c_.06 Length=0.1651 Units=m
New Line.LINE2118 Bus1=2112 Bus2=2119 phases=3 Linecode=4c_300_SAC Length=0.16744 Units=m
New Line.LINE2119 Bus1=2113 Bus2=2120 phases=3 Linecode=4c_300_SAC Length=0.19026 Units=m
New Line.LINE2120 Bus1=2114 Bus2=2121 phases=3 Linecode=35_SAC_XC Length=0.11322 Units=m
New Line.LINE2121 Bus1=2116 Bus2=2122 phases=3 Linecode=4c_300_SAC Length=3.578 Units=m
New Line.LINE2122 Bus1=2117 Bus2=2123 phases=3 Linecode=4c_.1 Length=0.24502 Units=m
New Line.LINE2123 Bus1=2118 Bus2=2124 phases=3 Linecode=4c_.06 Length=0.18768 Units=m
New Line.LINE2124 Bus1=2119 Bus2=2125 phases=3 Linecode=4c_300_SAC Length=0.57446 Units=m
New Line.LINE2125 Bus1=2120 Bus2=2126 phases=3 Linecode=4c_300_SAC Length=0.16323 Units=m
New Line.LINE2126 Bus1=2121 Bus2=2127 phases=3 Linecode=35_SAC_XC Length=0.11428 Units=m
New Line.LINE2127 Bus1=2122 Bus2=2128 phases=3 Linecode=4c_300_SAC Length=2.0533 Units=m
New Line.LINE2128 Bus1=2123 Bus2=2129 phases=3 Linecode=4c_.1 Length=0.19025 Units=m
New Line.LINE2129 Bus1=2124 Bus2=2130 phases=3 Linecode=4c_.06 Length=0.18768 Units=m
New Line.LINE2130 Bus1=2126 Bus2=2131 phases=3 Linecode=4c_300_SAC Length=0.24887 Units=m
New Line.LINE2131 Bus1=2127 Bus2=2132 phases=3 Linecode=35_SAC_XC Length=0.11385 Units=m
New Line.LINE2132 Bus1=2128 Bus2=2133 phases=3 Linecode=4c_300_SAC Length=2.2731 Units=m
New Line.LINE2133 Bus1=2129 Bus2=2134 phases=3 Linecode=4c_.1 Length=0.12572 Units=m
New Line.LINE2134 Bus1=2130 Bus2=2135 phases=3 Linecode=4c_.06 Length=0.16026 Units=m
New Line.LINE2135 Bus1=2131 Bus2=2136 phases=3 Linecode=4c_300_SAC Length=0.71943 Units=m
New Line.LINE2136 Bus1=2132 Bus2=2137 phases=3 Linecode=35_SAC_XC Length=0.11455 Units=m
New Line.LINE2137 Bus1=2133 Bus2=2138 phases=3 Linecode=4c_300_SAC Length=7.6821 Units=m
New Line.LINE2138 Bus1=2134 Bus2=2139 phases=3 Linecode=4c_.1 Length=0.17913 Units=m
New Line.LINE2139 Bus1=2135 Bus2=2140 phases=3 Linecode=4c_.06 Length=0.098858 Units=m
New Line.LINE2140 Bus1=2137 Bus2=2141 phases=3 Linecode=35_SAC_XC Length=0.11332 Units=m
New Line.LINE2141 Bus1=2138 Bus2=2142 phases=3 Linecode=4c_.5 Length=1.5452 Units=m
New Line.LINE2142 Bus1=2139 Bus2=2143 phases=3 Linecode=4c_.1 Length=0.32023 Units=m
New Line.LINE2143 Bus1=2140 Bus2=2144 phases=3 Linecode=4c_.06 Length=0.10465 Units=m
New Line.LINE2144 Bus1=2141 Bus2=2145 phases=3 Linecode=35_SAC_XC Length=0.11378 Units=m
New Line.LINE2145 Bus1=2142 Bus2=2146 phases=3 Linecode=4c_.5 Length=0.32006 Units=m
New Line.LINE2146 Bus1=2143 Bus2=2147 phases=3 Linecode=4c_.06 Length=1.2044 Units=m
New Line.LINE2147 Bus1=2143 Bus2=2148 phases=3 Linecode=4c_.06 Length=0.25849 Units=m
New Line.LINE2148 Bus1=2144 Bus2=2149 phases=3 Linecode=4c_.06 Length=1.1303 Units=m
New Line.LINE2149 Bus1=2145 Bus2=2150 phases=3 Linecode=35_SAC_XC Length=0.11411 Units=m
New Line.LINE2150 Bus1=2146 Bus2=2151 phases=3 Linecode=4c_.5 Length=0.27351 Units=m
New Line.LINE2151 Bus1=2147 Bus2=2152 phases=3 Linecode=4c_.06 Length=0.9003 Units=m
New Line.LINE2152 Bus1=2148 Bus2=2153 phases=3 Linecode=4c_.06 Length=1.1967 Units=m
New Line.LINE2153 Bus1=2149 Bus2=2154 phases=3 Linecode=4c_.06 Length=5.0734 Units=m
New Line.LINE2154 Bus1=2151 Bus2=2155 phases=3 Linecode=4c_.5 Length=0.25111 Units=m
New Line.LINE2155 Bus1=2152 Bus2=2156 phases=3 Linecode=4c_.06 Length=1.0219 Units=m
New Line.LINE2156 Bus1=2153 Bus2=2157 phases=3 Linecode=4c_.06 Length=1.0863 Units=m
New Line.LINE2157 Bus1=2154 Bus2=2158 phases=3 Linecode=4c_.06 Length=0.35328 Units=m
New Line.LINE2158 Bus1=2155 Bus2=2159 phases=3 Linecode=4c_.5 Length=0.24535 Units=m
New Line.LINE2159 Bus1=2156 Bus2=2160 phases=3 Linecode=4c_.06 Length=0.816 Units=m
New Line.LINE2160 Bus1=2157 Bus2=2161 phases=3 Linecode=4c_.06 Length=2.8635 Units=m
New Line.LINE2161 Bus1=2158 Bus2=2162 phases=3 Linecode=4c_.06 Length=0.24444 Units=m
New Line.LINE2162 Bus1=2159 Bus2=2163 phases=3 Linecode=4c_.5 Length=0.32177 Units=m
New Line.LINE2163 Bus1=2160 Bus2=2164 phases=3 Linecode=4c_.06 Length=0.68062 Units=m
New Line.LINE2164 Bus1=2161 Bus2=2165 phases=3 Linecode=4c_.06 Length=6.5871 Units=m
New Line.LINE2165 Bus1=2162 Bus2=2166 phases=3 Linecode=4c_.06 Length=0.16586 Units=m
New Line.LINE2166 Bus1=2163 Bus2=2167 phases=3 Linecode=4c_.5 Length=0.39623 Units=m
New Line.LINE2167 Bus1=2164 Bus2=2168 phases=3 Linecode=4c_.06 Length=0.8392 Units=m
New Line.LINE2168 Bus1=2165 Bus2=2169 phases=3 Linecode=2c_.0225 Length=7.3715 Units=m
New Line.LINE2169 Bus1=2165 Bus2=2170 phases=3 Linecode=4c_.06 Length=2.1281 Units=m
New Line.LINE2170 Bus1=2166 Bus2=2171 phases=3 Linecode=4c_.06 Length=0.3027 Units=m
New Line.LINE2171 Bus1=2167 Bus2=2172 phases=3 Linecode=4c_.5 Length=2.8593 Units=m
New Line.LINE2172 Bus1=2168 Bus2=2173 phases=3 Linecode=4c_.06 Length=0.90468 Units=m
New Line.LINE2173 Bus1=2169 Bus2=2174 phases=3 Linecode=2c_.0225 Length=0.4837 Units=m
New Line.LINE2174 Bus1=2170 Bus2=2175 phases=3 Linecode=2c_.0225 Length=7.2098 Units=m
New Line.LINE2175 Bus1=2170 Bus2=2176 phases=3 Linecode=4c_.06 Length=10.1945 Units=m
New Line.LINE2176 Bus1=2171 Bus2=2177 phases=3 Linecode=4c_.06 Length=0.41015 Units=m
New Line.LINE2177 Bus1=2172 Bus2=2178 phases=3 Linecode=4c_.5 Length=9.9495 Units=m
New Line.LINE2178 Bus1=2173 Bus2=2179 phases=3 Linecode=4c_.06 Length=0.57899 Units=m
New Line.LINE2179 Bus1=2174 Bus2=2180 phases=3 Linecode=2c_.0225 Length=0.3844 Units=m
New Line.LINE2180 Bus1=2175 Bus2=2181 phases=3 Linecode=2c_.0225 Length=7.5749 Units=m
New Line.LINE2181 Bus1=2176 Bus2=2182 phases=3 Linecode=2c_.007 Length=0.27554 Units=m
New Line.LINE2182 Bus1=2176 Bus2=2183 phases=3 Linecode=4c_.06 Length=3.0002 Units=m
New Line.LINE2183 Bus1=2177 Bus2=2184 phases=3 Linecode=4c_.06 Length=0.8107 Units=m
New Line.LINE2184 Bus1=2178 Bus2=2185 phases=3 Linecode=4c_.5 Length=13.337 Units=m
New Line.LINE2185 Bus1=2179 Bus2=2186 phases=3 Linecode=4c_.06 Length=6.995 Units=m
New Line.LINE2186 Bus1=2180 Bus2=2187 phases=3 Linecode=2c_.0225 Length=0.19807 Units=m
New Line.LINE2187 Bus1=2182 Bus2=2188 phases=3 Linecode=2c_.007 Length=0.20951 Units=m
New Line.LINE2188 Bus1=2183 Bus2=2189 phases=3 Linecode=2c_.0225 Length=7.4458 Units=m
New Line.LINE2189 Bus1=2183 Bus2=2190 phases=3 Linecode=4c_.06 Length=4.0245 Units=m
New Line.LINE2190 Bus1=2184 Bus2=2191 phases=3 Linecode=4c_.06 Length=1.4826 Units=m
New Line.LINE2191 Bus1=2185 Bus2=2192 phases=3 Linecode=4c_.5 Length=4.6277 Units=m
New Line.LINE2192 Bus1=2186 Bus2=2193 phases=3 Linecode=4c_.06 Length=1.6496 Units=m
New Line.LINE2193 Bus1=2187 Bus2=2194 phases=3 Linecode=2c_.0225 Length=0.33179 Units=m
New Line.LINE2194 Bus1=2188 Bus2=2195 phases=3 Linecode=2c_.007 Length=0.19228 Units=m
New Line.LINE2195 Bus1=2189 Bus2=2196 phases=3 Linecode=2c_.0225 Length=5.1426 Units=m
New Line.LINE2196 Bus1=2190 Bus2=2197 phases=3 Linecode=2c_.0225 Length=7.7733 Units=m
New Line.LINE2197 Bus1=2190 Bus2=2198 phases=3 Linecode=4c_.06 Length=5.7798 Units=m
New Line.LINE2198 Bus1=2191 Bus2=2199 phases=3 Linecode=4c_.06 Length=1.6369 Units=m
New Line.LINE2199 Bus1=2192 Bus2=2200 phases=3 Linecode=4c_.5 Length=4.134 Units=m
New Line.LINE2200 Bus1=2193 Bus2=2201 phases=3 Linecode=4c_.06 Length=2.9151 Units=m
...